@<TRIPOS>MOLECULE
JZ4
22   22    1
SMALL
USER_CHARGES


@<TRIPOS>ATOM
      1 OAB        23.4120  -23.5360   -4.3420 O.3       1 JZ4         0.0000 
      2 C4         24.2940  -24.1240   -0.0710 C.3       1 JZ4         0.0000 
      3 C7         21.5530  -27.2140   -4.1120 C.ar      1 JZ4         0.0000 
      4 C8         22.0680  -26.7470   -5.3310 C.ar      1 JZ4         0.0000 
      5 C9         22.6710  -25.5120   -5.4480 C.ar      1 JZ4         0.0000 
      6 C10        22.7690  -24.7300   -4.2950 C.ar      1 JZ4         0.0000 
      7 C11        21.6930  -26.4590   -2.9540 C.ar      1 JZ4         0.0000 
      8 C12        22.2940  -25.1870   -3.0750 C.ar      1 JZ4         0.0000 
      9 C13        22.4630  -24.4140   -1.8080 C.3       1 JZ4         0.0000 
     10 C14        23.9250  -24.7040   -1.3940 C.3       1 JZ4         0.0000 
     11 HOAB       23.3912  -23.1265   -3.4740 H         1 JZ4         0.0000 
     12 H41        25.3323  -24.3661    0.1556 H         1 JZ4         0.0000 
     13 H42        24.1723  -23.0413   -0.1017 H         1 JZ4         0.0000 
     14 H43        23.6475  -24.5400    0.7017 H         1 JZ4         0.0000 
     15 H131       21.7882  -24.8122   -1.0503 H         1 JZ4         0.0000 
     16 H132       22.3522  -23.3501   -2.0175 H         1 JZ4         0.0000 
     17 H141       24.0887  -25.7815   -1.3750 H         1 JZ4         0.0000 
     18 H142       24.6004  -24.3199   -2.1584 H         1 JZ4         0.0000 
     19 H11        21.3478  -26.8510   -2.0087 H         1 JZ4         0.0000 
     20 H7         21.0453  -28.1666   -4.0775 H         1 JZ4         0.0000 
     21 H9         23.0461  -25.1828   -6.4058 H         1 JZ4         0.0000 
     22 H8         21.9990  -27.3608   -6.2170 H         1 JZ4         0.0000 
@<TRIPOS>BOND
     1    1    6 1    
     2    1   11 1    
     3    2   10 1    
     4    2   12 1    
     5    2   13 1    
     6    2   14 1    
     7    3    4 ar   
     8    3    7 ar   
     9    3   20 1    
    10    4    5 ar   
    11    4   22 1    
    12    5    6 ar   
    13    5   21 1    
    14    6    8 ar   
    15    7    8 ar   
    16    7   19 1    
    17    8    9 1    
    18    9   10 1    
    19    9   15 1    
    20    9   16 1    
    21   10   17 1    
    22   10   18 1    
@<TRIPOS>SUBSTRUCTURE
     1 JZ4         1 GROUP             0 A     ****    0 ROOT    
